/*--------------------------------*- C++ -*----------------------------------*\
| =========                 |                                                 |
| \\      /  F ield         | OpenFOAM: The Open Source CFD Toolbox           |
|  \\    /   O peration     | Version:  v2012                                 |
|   \\  /    A nd           | Website:  www.openfoam.com                      |
|    \\/     M anipulation  |                                                 |
\*---------------------------------------------------------------------------*/
FoamFile
{
    version     2.0;
    format      ascii;
    class       polyBoundaryMesh;
    location    "0.005/polyMesh";
    object      boundary;
}
// * * * * * * * * * * * * * * * * * * * * * * * * * * * * * * * * * * * * * //

6
(
    movingWall
    {
        type            patch;
        nFaces          0;
        startFace       2082900;
    }
    bottomWall
    {
        type            patch;
        nFaces          0;
        startFace       2082900;
    }
    leftSide
    {
        type            patch;
        nFaces          0;
        startFace       2082900;
    }
    rightSide
    {
        type            patch;
        nFaces          0;
        startFace       2082900;
    }
    frontAndBack
    {
        type            patch;
        nFaces          0;
        startFace       2082900;
    }
    cylinder
    {
        type            wall;
        inGroups        1(wall);
        nFaces          271408;
        startFace       2082900;
    }
)

// ************************************************************************* //
